<?xml version="1.0" encoding="UTF-8"?>

<routes xmlns:xsi="http://www.w3.org/2001/XMLSchema-instance" xsi:noNamespaceSchemaLocation="http://sumo.dlr.de/xsd/routes_file.xsd">
    <vType id="veh_passenger" vClass="passenger"/>
    <vehicle id="veh0" type="veh_passenger" depart="0.00" departLane="best" departSpeed="5.0">
        <route edges="376401312#0 149935566#1 149935566#2 58561800#1 58561799#0 58561799#1 -943542797#0 -392103887 -40317922#4 -40317922#3 -40317922#2 -40317922#1 -27222779#2 -27222779#1 -27222779#0"/>
    </vehicle>
</routes> 